<?xml version="1.0" encoding="UTF-8"?>

<!-- generated on 2024-01-23 16:21:13 by Eclipse SUMO netedit Version 1.18.0
<configuration xmlns:xsi="http://www.w3.org/2001/XMLSchema-instance" xsi:noNamespaceSchemaLocation="http://sumo.dlr.de/xsd/neteditConfiguration.xsd">

    <input>
        <sumo-net-file value="/home/gjy/coach/scenario/Junc1_small/Junc1_small.net.xml"/>
    </input>

    <output>
        <output-file value="/home/gjy/coach/scenario/Junc1_small/Junc1_small.net.xml"/>
    </output>

    <processing>
        <geometry.min-radius.fix.railways value="false"/>
        <geometry.max-grade.fix value="false"/>
        <offset.disable-normalization value="true"/>
        <lefthand value="0"/>
    </processing>

    <junctions>
        <no-turnarounds value="true"/>
        <junctions.corner-detail value="5"/>
        <junctions.limit-turn-speed value="5.50"/>
        <rectangular-lane-cut value="0"/>
    </junctions>

    <pedestrian>
        <walkingareas value="0"/>
    </pedestrian>

</configuration>
-->

<net version="1.16" junctionCornerDetail="5" limitTurnSpeed="5.50" xmlns:xsi="http://www.w3.org/2001/XMLSchema-instance" xsi:noNamespaceSchemaLocation="http://sumo.dlr.de/xsd/net_file.xsd">

    <location netOffset="0.00,0.00" convBoundary="0.00,0.00,180.00,180.00" origBoundary="0.00,0.00,180.00,180.00" projParameter="!"/>

    <edge id=":1/1_0" function="internal">
        <lane id=":1/1_0_0" index="0" speed="6.51" length="9.03" shape="88.40,97.20 88.05,94.75 87.00,93.00 85.25,91.95 82.80,91.60"/>
    </edge>
    <edge id=":1/1_1" function="internal">
        <lane id=":1/1_1_0" index="0" speed="15.00" length="14.40" shape="88.40,97.20 88.40,82.80"/>
    </edge>
    <edge id=":1/1_2" function="internal">
        <lane id=":1/1_2_0" index="0" speed="6.51" length="9.03" shape="97.20,91.60 94.75,91.95 93.00,93.00 91.95,94.75 91.60,97.20"/>
    </edge>
    <edge id=":1/1_3" function="internal">
        <lane id=":1/1_3_0" index="0" speed="15.00" length="14.40" shape="97.20,91.60 82.80,91.60"/>
    </edge>
    <edge id=":1/1_4" function="internal">
        <lane id=":1/1_4_0" index="0" speed="6.51" length="9.03" shape="91.60,82.80 91.95,85.25 93.00,87.00 94.75,88.05 97.20,88.40"/>
    </edge>
    <edge id=":1/1_5" function="internal">
        <lane id=":1/1_5_0" index="0" speed="15.00" length="14.40" shape="91.60,82.80 91.60,97.20"/>
    </edge>
    <edge id=":1/1_6" function="internal">
        <lane id=":1/1_6_0" index="0" speed="6.51" length="9.03" shape="82.80,88.40 85.25,88.05 87.00,87.00 88.05,85.25 88.40,82.80"/>
    </edge>
    <edge id=":1/1_7" function="internal">
        <lane id=":1/1_7_0" index="0" speed="15.00" length="14.40" shape="82.80,88.40 97.20,88.40"/>
    </edge>

    <edge id="0/1to1/1" from="0/1" to="1/1" priority="-1">
        <lane id="0/1to1/1_0" index="0" speed="15.00" length="82.80" shape="0.00,88.40 82.80,88.40"/>
    </edge>
    <edge id="1/0to1/1" from="1/0" to="1/1" priority="-1">
        <lane id="1/0to1/1_0" index="0" speed="15.00" length="82.80" shape="91.60,0.00 91.60,82.80"/>
    </edge>
    <edge id="1/1to0/1" from="1/1" to="0/1" priority="-1">
        <lane id="1/1to0/1_0" index="0" speed="15.00" length="82.80" shape="82.80,91.60 0.00,91.60"/>
    </edge>
    <edge id="1/1to1/0" from="1/1" to="1/0" priority="-1">
        <lane id="1/1to1/0_0" index="0" speed="15.00" length="82.80" shape="88.40,82.80 88.40,0.00"/>
    </edge>
    <edge id="1/1to1/2" from="1/1" to="1/2" priority="-1">
        <lane id="1/1to1/2_0" index="0" speed="15.00" length="82.80" shape="91.60,97.20 91.60,180.00"/>
    </edge>
    <edge id="1/1to2/1" from="1/1" to="2/1" priority="-1">
        <lane id="1/1to2/1_0" index="0" speed="15.00" length="82.80" shape="97.20,88.40 180.00,88.40"/>
    </edge>
    <edge id="1/2to1/1" from="1/2" to="1/1" priority="-1">
        <lane id="1/2to1/1_0" index="0" speed="15.00" length="82.80" shape="88.40,180.00 88.40,97.20"/>
    </edge>
    <edge id="2/1to1/1" from="2/1" to="1/1" priority="-1">
        <lane id="2/1to1/1_0" index="0" speed="15.00" length="82.80" shape="180.00,91.60 97.20,91.60"/>
    </edge>

    <tlLogic id="1/1" type="static" programID="0" offset="0">
        <phase duration="42" state="GGrrGGrr"/>
        <phase duration="3"  state="yyrryyrr"/>
        <phase duration="42" state="rrGGrrGG"/>
        <phase duration="3"  state="rryyrryy"/>
    </tlLogic>

    <junction id="0/1" type="dead_end" x="0.00" y="90.00" incLanes="1/1to0/1_0" intLanes="" shape="0.00,90.00 0.00,93.20 0.00,90.00"/>
    <junction id="1/0" type="dead_end" x="90.00" y="0.00" incLanes="1/1to1/0_0" intLanes="" shape="90.00,0.00 86.80,0.00 90.00,0.00"/>
    <junction id="1/1" type="traffic_light" x="90.00" y="90.00" incLanes="1/2to1/1_0 2/1to1/1_0 1/0to1/1_0 0/1to1/1_0" intLanes=":1/1_0_0 :1/1_1_0 :1/1_2_0 :1/1_3_0 :1/1_4_0 :1/1_5_0 :1/1_6_0 :1/1_7_0" shape="86.80,97.20 93.20,97.20 93.64,94.98 94.20,94.20 94.98,93.64 95.98,93.31 97.20,93.20 97.20,86.80 94.98,86.36 94.20,85.80 93.64,85.02 93.31,84.02 93.20,82.80 86.80,82.80 86.36,85.02 85.80,85.80 85.02,86.36 84.02,86.69 82.80,86.80 82.80,93.20 85.02,93.64 85.80,94.20 86.36,94.98 86.69,95.98">
        <request index="0" response="00000000" foes="00001000" cont="0"/>
        <request index="1" response="00000000" foes="11001000" cont="0"/>
        <request index="2" response="00100000" foes="00100000" cont="0"/>
        <request index="3" response="00100011" foes="00100011" cont="0"/>
        <request index="4" response="00000000" foes="10000000" cont="0"/>
        <request index="5" response="00000000" foes="10001100" cont="0"/>
        <request index="6" response="00000010" foes="00000010" cont="0"/>
        <request index="7" response="00110010" foes="00110010" cont="0"/>
    </junction>
    <junction id="1/2" type="dead_end" x="90.00" y="180.00" incLanes="1/1to1/2_0" intLanes="" shape="90.00,180.00 93.20,180.00 90.00,180.00"/>
    <junction id="2/1" type="dead_end" x="180.00" y="90.00" incLanes="1/1to2/1_0" intLanes="" shape="180.00,90.00 180.00,86.80 180.00,90.00"/>

    <connection from="0/1to1/1" to="1/1to1/0" fromLane="0" toLane="0" via=":1/1_6_0" tl="1/1" linkIndex="6" dir="r" state="o"/>
    <connection from="0/1to1/1" to="1/1to2/1" fromLane="0" toLane="0" via=":1/1_7_0" tl="1/1" linkIndex="7" dir="s" state="o"/>
    <connection from="1/0to1/1" to="1/1to2/1" fromLane="0" toLane="0" via=":1/1_4_0" tl="1/1" linkIndex="4" dir="r" state="O"/>
    <connection from="1/0to1/1" to="1/1to1/2" fromLane="0" toLane="0" via=":1/1_5_0" tl="1/1" linkIndex="5" dir="s" state="O"/>
    <connection from="1/2to1/1" to="1/1to0/1" fromLane="0" toLane="0" via=":1/1_0_0" tl="1/1" linkIndex="0" dir="r" state="O"/>
    <connection from="1/2to1/1" to="1/1to1/0" fromLane="0" toLane="0" via=":1/1_1_0" tl="1/1" linkIndex="1" dir="s" state="O"/>
    <connection from="2/1to1/1" to="1/1to1/2" fromLane="0" toLane="0" via=":1/1_2_0" tl="1/1" linkIndex="2" dir="r" state="o"/>
    <connection from="2/1to1/1" to="1/1to0/1" fromLane="0" toLane="0" via=":1/1_3_0" tl="1/1" linkIndex="3" dir="s" state="o"/>

    <connection from=":1/1_0" to="1/1to0/1" fromLane="0" toLane="0" dir="r" state="M"/>
    <connection from=":1/1_1" to="1/1to1/0" fromLane="0" toLane="0" dir="s" state="M"/>
    <connection from=":1/1_2" to="1/1to1/2" fromLane="0" toLane="0" dir="r" state="M"/>
    <connection from=":1/1_3" to="1/1to0/1" fromLane="0" toLane="0" dir="s" state="M"/>
    <connection from=":1/1_4" to="1/1to2/1" fromLane="0" toLane="0" dir="r" state="M"/>
    <connection from=":1/1_5" to="1/1to1/2" fromLane="0" toLane="0" dir="s" state="M"/>
    <connection from=":1/1_6" to="1/1to1/0" fromLane="0" toLane="0" dir="r" state="M"/>
    <connection from=":1/1_7" to="1/1to2/1" fromLane="0" toLane="0" dir="s" state="M"/>

</net>
