<?xml version="1.0" encoding="UTF-8"?>

<routes xmlns:xsi="http://www.w3.org/2001/XMLSchema-instance" xsi:noNamespaceSchemaLocation="http://sumo.dlr.de/xsd/routes_file.xsd">
  <route id="routeN_E" edges="1/2to1/1 1/1to2/1"/>
  <route id="routeN_S" edges="1/2to1/1 1/1to1/0"/>
  <route id="routeN_W" edges="1/2to1/1 1/1to0/1"/>

  <route id="routeE_S" edges="2/1to1/1 1/1to1/0"/>
  <route id="routeE_W" edges="2/1to1/1 1/1to0/1"/>
  <route id="routeE_N" edges="2/1to1/1 1/1to1/2"/>

  <route id="routeS_W" edges="1/0to1/1 1/1to2/1"/>
  <route id="routeS_N" edges="1/0to1/1 1/1to1/2"/>
  <route id="routeS_E" edges="1/0to1/1 1/1to0/1"/>

  <route id="routeW_N" edges="0/1to1/1 1/1to1/2"/>
  <route id="routeW_E" edges="0/1to1/1 1/1to2/1"/>
  <route id="routeW_S" edges="0/1to1/1 1/1to1/0"/>

  <flow id="flow_00" route="routeN_E" departLane="allowed" departSpeed="random" arrivalPos="max" begin="1" end="1800" vehsPerHour="120.0" type="default"/>
  <flow id="flow_01" route="routeN_S" departLane="allowed" departSpeed="random" arrivalPos="max" begin="1" end="1800" vehsPerHour="600.0" type="default"/>
  <flow id="flow_02" route="routeN_W" departLane="allowed" departSpeed="random" arrivalPos="max" begin="1" end="1800" vehsPerHour="120.0" type="default"/>

  <flow id="flow_10" route="routeE_S" departLane="allowed" departSpeed="random" arrivalPos="max" begin="1" end="1800" vehsPerHour="72.0" type="default"/>
  <flow id="flow_11" route="routeE_W" departLane="allowed" departSpeed="random" arrivalPos="max" begin="1" end="1800" vehsPerHour="180.0" type="default"/>
  <flow id="flow_12" route="routeE_N" departLane="allowed" departSpeed="random" arrivalPos="max" begin="1" end="1800" vehsPerHour="72.0" type="default"/>

  <flow id="flow_20" route="routeS_W" departLane="allowed" departSpeed="random" arrivalPos="max" begin="1" end="1800" vehsPerHour="120.0" type="default"/>
  <flow id="flow_21" route="routeS_N" departLane="allowed" departSpeed="random" arrivalPos="max" begin="1" end="1800" vehsPerHour="600.0" type="default"/>
  <flow id="flow_22" route="routeS_E" departLane="allowed" departSpeed="random" arrivalPos="max" begin="1" end="1800" vehsPerHour="120.0" type="default"/>

  <flow id="flow_30" route="routeW_N" departLane="allowed" departSpeed="random" arrivalPos="max" begin="1" end="1800" vehsPerHour="72.0" type="default"/>
  <flow id="flow_31" route="routeW_E" departLane="allowed" departSpeed="random" arrivalPos="max" begin="1" end="1800" vehsPerHour="180.0" type="default"/>
  <flow id="flow_32" route="routeW_S" departLane="allowed" departSpeed="random" arrivalPos="max" begin="1" end="1800" vehsPerHour="72.0" type="default"/>
</routes>
